data/TasNetworks - TasNetworks sourcebus_22000.trafo_75609294_75609294/Loads.dss
New Load.NMI_elem_75609917 bus1=3103233.2 kV=0.23094010767585033 Vminpu=0.7 Vmaxpu=1.3 model=1 kW=0.7763551255988657 kvar=0.15764563198044976 Phases=1
New Load.NMI_elem_75610864 bus1=3104929.2 kV=0.23094010767585033 Vminpu=0.7 Vmaxpu=1.3 model=1 kW=0.7327997918082565 kvar=0.1488013442374617 Phases=1
New Load.NMI_elem_75611163 bus1=3103802.1 kV=0.23094010767585033 Vminpu=0.7 Vmaxpu=1.3 model=1 kW=4.282943390849386 kvar=0.8696887485171365 Phases=1
New Load.NMI_elem_75611273 bus1=3103232.2 kV=0.23094010767585033 Vminpu=0.7 Vmaxpu=1.3 model=1 kW=0.5618596118418177 kvar=0.11409046024494096 Phases=1
